version 2
run General-0-20150204-12:23:35-11372
attr configname General
attr datetime 20150204-12:23:35
attr experiment General
attr inifile omnetpp.ini
attr iterationvars ""
attr iterationvars2 $repetition=0
attr measurement ""
attr network Red
attr processid 11372
attr repetition 0
attr replication #0
attr resultdir results
attr runnumber 0
attr seedset 0

scalar Red 	hackForCreateResultsFolder 	0
